/*--------------------------------*- C++ -*----------------------------------*\
  =========                 |
  \\      /  F ield         | OpenFOAM: The Open Source CFD Toolbox
   \\    /   O peration     | Website:  https://openfoam.org
    \\  /    A nd           | Version:  dev
     \\/     M anipulation  |
\*---------------------------------------------------------------------------*/
FoamFile
{
    format      ascii;
    class       dictionary;
    location    "system";
    object      setFieldsDict;
}
// * * * * * * * * * * * * * * * * * * * * * * * * * * * * * * * * * * * * * //

defaultFieldValues
(
    volScalarFieldValue alpha.liquid 0.001
    volScalarFieldValue p_rhg 1e5
             
);

regions
(
    boxToCell
    {
       box (-100 -100 0.0) (100 100 1);//  box (-100 -100 0.0) (100 100 0.05);
        fieldValues
        (
            volScalarFieldValue alpha.liquid 0.999
                volScalarFieldValue p_rhg 5e6
           
                
                
     
        );
    }
);


// ************************************************************************* //
